24901603
  -OEChem-10022313213D

 41 42  0     1  0  0  0  0  0999 V2000
    2.9742   -0.6290   -0.2688 O   0  0  0  0  0  0  0  0  0  0  0  0
   -3.2928    0.7120    0.9029 O   0  0  0  0  0  0  0  0  0  0  0  0
   -5.4970    2.3242   -0.1448 O   0  0  0  0  0  0  0  0  0  0  0  0
   -7.0476    1.1196   -1.2778 O   0  0  0  0  0  0  0  0  0  0  0  0
   -2.5599   -1.2159   -0.2243 N   0  0  0  0  0  0  0  0  0  0  0  0
   -7.2220   -0.5757    0.9021 N   0  0  0  0  0  0  0  0  0  0  0  0
   -4.9187   -0.8617    0.1362 C   0  0  0  0  0  0  0  0  0  0  0  0
   -5.9582    0.1272    0.6699 C   0  0  1  0  0  0  0  0  0  0  0  0
   -3.4983   -0.3517    0.3255 C   0  0  0  0  0  0  0  0  0  0  0  0
   -1.1531   -1.0659   -0.2363 C   0  0  0  0  0  0  0  0  0  0  0  0
    1.6210   -0.7719   -0.2585 C   0  0  0  0  0  0  0  0  0  0  0  0
    3.5089    0.5384    0.3537 C   0  0  0  0  0  0  0  0  0  0  0  0
   -0.3534   -2.0373   -0.8387 C   0  0  0  0  0  0  0  0  0  0  0  0
   -0.5656    0.0526    0.3550 C   0  0  0  0  0  0  0  0  0  0  0  0
    5.0026    0.5290    0.2111 C   0  0  0  0  0  0  0  0  0  0  0  0
    1.0335   -1.8903   -0.8497 C   0  0  0  0  0  0  0  0  0  0  0  0
    0.8216    0.1997    0.3438 C   0  0  0  0  0  0  0  0  0  0  0  0
   -6.2399    1.2069   -0.3617 C   0  0  0  0  0  0  0  0  0  0  0  0
    5.7926   -0.0763    1.1885 C   0  0  0  0  0  0  0  0  0  0  0  0
    5.6013    1.1250   -0.8989 C   0  0  0  0  0  0  0  0  0  0  0  0
    7.1812   -0.0854    1.0561 C   0  0  0  0  0  0  0  0  0  0  0  0
    6.9898    1.1159   -1.0314 C   0  0  0  0  0  0  0  0  0  0  0  0
    7.7797    0.5106   -0.0538 C   0  0  0  0  0  0  0  0  0  0  0  0
   -4.9804   -1.8139    0.6796 H   0  0  0  0  0  0  0  0  0  0  0  0
   -5.0789   -1.0717   -0.9288 H   0  0  0  0  0  0  0  0  0  0  0  0
   -5.6555    0.5911    1.6149 H   0  0  0  0  0  0  0  0  0  0  0  0
   -2.9085   -2.0601   -0.6734 H   0  0  0  0  0  0  0  0  0  0  0  0
    3.2588    0.5588    1.4227 H   0  0  0  0  0  0  0  0  0  0  0  0
    3.1242    1.4488   -0.1250 H   0  0  0  0  0  0  0  0  0  0  0  0
   -0.7984   -2.9138   -1.3028 H   0  0  0  0  0  0  0  0  0  0  0  0
   -1.1186    0.8442    0.8408 H   0  0  0  0  0  0  0  0  0  0  0  0
    1.6513   -2.6502   -1.3202 H   0  0  0  0  0  0  0  0  0  0  0  0
    1.2090    1.0915    0.8240 H   0  0  0  0  0  0  0  0  0  0  0  0
   -7.9006    0.0673    1.3092 H   0  0  0  0  0  0  0  0  0  0  0  0
   -7.0819   -1.3120    1.5931 H   0  0  0  0  0  0  0  0  0  0  0  0
    5.3383   -0.5464    2.0568 H   0  0  0  0  0  0  0  0  0  0  0  0
    4.9969    1.5977   -1.6687 H   0  0  0  0  0  0  0  0  0  0  0  0
    7.7963   -0.5572    1.8167 H   0  0  0  0  0  0  0  0  0  0  0  0
    7.4561    1.5792   -1.8960 H   0  0  0  0  0  0  0  0  0  0  0  0
    8.8609    0.5031   -0.1572 H   0  0  0  0  0  0  0  0  0  0  0  0
   -5.6870    3.0233   -0.8062 H   0  0  0  0  0  0  0  0  0  0  0  0
  1 11  1  0  0  0  0
  1 12  1  0  0  0  0
  2  9  2  0  0  0  0
  3 18  1  0  0  0  0
  3 41  1  0  0  0  0
  4 18  2  0  0  0  0
  5  9  1  0  0  0  0
  5 10  1  0  0  0  0
  5 27  1  0  0  0  0
  6  8  1  0  0  0  0
  6 34  1  0  0  0  0
  6 35  1  0  0  0  0
  7  8  1  0  0  0  0
  7  9  1  0  0  0  0
  7 24  1  0  0  0  0
  7 25  1  0  0  0  0
  8 18  1  0  0  0  0
  8 26  1  0  0  0  0
 10 13  2  0  0  0  0
 10 14  1  0  0  0  0
 11 16  2  0  0  0  0
 11 17  1  0  0  0  0
 12 15  1  0  0  0  0
 12 28  1  0  0  0  0
 12 29  1  0  0  0  0
 13 16  1  0  0  0  0
 13 30  1  0  0  0  0
 14 17  2  0  0  0  0
 14 31  1  0  0  0  0
 15 19  2  0  0  0  0
 15 20  1  0  0  0  0
 16 32  1  0  0  0  0
 17 33  1  0  0  0  0
 19 21  1  0  0  0  0
 19 36  1  0  0  0  0
 20 22  2  0  0  0  0
 20 37  1  0  0  0  0
 21 23  2  0  0  0  0
 21 38  1  0  0  0  0
 22 23  1  0  0  0  0
 22 39  1  0  0  0  0
 23 40  1  0  0  0  0
M  END
> <PUBCHEM_COMPOUND_CID>
24901603

> <PUBCHEM_CONFORMER_RMSD>
1

> <PUBCHEM_CONFORMER_DIVERSEORDER>
1
53
35
68
56
78
60
5
18
54
67
39
55
71
48
50
66
79
70
11
91
80
43
49
73
82
44
9
7
40
92
32
45
62
20
8
47
85
64
69
22
52
59
75
38
21
28
63
27
65
81
31
42
86
83
37
2
24
88
13
26
6
29
72
89
61
33
90
30
58
76
23
36
57
51
25
46
15
41
12
74
3
84
19
10
87
16
34
14
17
77
4

> <PUBCHEM_MMFF94_PARTIAL_CHARGES>
36
1 -0.36
10 0.12
11 0.08
12 0.42
13 -0.15
14 -0.15
15 -0.14
16 -0.15
17 -0.15
18 0.66
19 -0.15
2 -0.57
20 -0.15
21 -0.15
22 -0.15
23 -0.15
27 0.37
3 -0.65
30 0.15
31 0.15
32 0.15
33 0.15
34 0.36
35 0.36
36 0.15
37 0.15
38 0.15
39 0.15
4 -0.57
40 0.15
41 0.5
5 -0.55
6 -0.99
7 0.06
8 0.33
9 0.57

> <PUBCHEM_EFFECTIVE_ROTOR_COUNT>
8

> <PUBCHEM_PHARMACOPHORE_FEATURES>
10
1 1 acceptor
1 2 acceptor
1 3 acceptor
1 4 acceptor
1 5 donor
1 6 cation
1 6 donor
3 3 4 18 anion
6 10 11 13 14 16 17 rings
6 15 19 20 21 22 23 rings

> <PUBCHEM_HEAVY_ATOM_COUNT>
23

> <PUBCHEM_ATOM_DEF_STEREO_COUNT>
1

> <PUBCHEM_ATOM_UDEF_STEREO_COUNT>
0

> <PUBCHEM_BOND_DEF_STEREO_COUNT>
0

> <PUBCHEM_BOND_UDEF_STEREO_COUNT>
0

> <PUBCHEM_ISOTOPIC_ATOM_COUNT>
0

> <PUBCHEM_COMPONENT_COUNT>
1

> <PUBCHEM_CACTVS_TAUTO_COUNT>
2

> <PUBCHEM_CONFORMER_ID>
017BF7E300000001

> <PUBCHEM_MMFF94_ENERGY>
63.3347

> <PUBCHEM_FEATURE_SELFOVERLAP>
50.807

> <PUBCHEM_SHAPE_FINGERPRINT>
10 15 18260833713221586267
10066227 49 13326589431963399212
10670039 82 17561090167919174904
11719270 70 18271805696974847046
12091667 2 18335420188609654507
12236239 1 18187364367939394298
12516196 113 13045940218391373494
12596602 18 17458346359532606464
13167372 99 18187083949340308148
13288520 33 8790886281190777075
13533116 47 17131559341243958414
13668630 136 11527956655628080892
13673619 4 8646766690594491063
13685833 64 10809344442757221934
14123256 10 17561085804137196137
14251757 52 18261675973989808988
14251764 18 17821729454927840422
14729087 3 18411979161059462033
14849402 71 16588882294230499108
14933364 13 17385722500227339916
15142383 8 18334010593486426464
15183329 4 17703793613203330136
15461852 350 18340483456983262135
1577012 14 18336825394613831702
18006028 8 12396295975995223374
20157964 124 14764350453664141848
20281389 69 18409166632212538232
20554085 129 17418081114986372410
20567600 254 18272650147094163759
21150785 3 14045739331203604210
22122407 14 17822307806977688652
2215653 11 16630255770744385068
22288116 15 16845000317012504509
22956985 138 8068103647262223568
23035841 295 9223230749863885637
23559900 14 16630236008656000706
246663 6 8934998187732108293
2838139 119 18342450465361646293
28498 318 18201723930206839614
3103668 31 17129281320233289903
312425 54 16008750229683711680
335352 9 18131633417878225172
3411729 13 18335138648940071754
4073 2 17967538999265988986
4340502 62 17458063763944341674
465052 167 7925911487182925754
5104073 3 18263653866469203307
5758199 1 17846787299609083379
59755656 215 17917994958167959956
59755656 520 18187922923535363986
999808 66 10375866411950463589

> <PUBCHEM_SHAPE_MULTIPOLES>
439.89
23.72
1.62
1.04
1.41
0.12
0.01
-10.61
-1
-1.53
0.51
0.48
-0.05
0.04

> <PUBCHEM_SHAPE_SELFOVERLAP>
927.634

> <PUBCHEM_SHAPE_VOLUME>
244.8

> <PUBCHEM_COORDINATE_TYPE>
2
5
10

$$$$
