71452730
  -OEChem-10022313243D

 38 39  0     1  0  0  0  0  0999 V2000
    4.0999    2.4351   -1.5579 F   0  0  0  0  0  0  0  0  0  0  0  0
    6.0935    2.6675    0.2995 F   0  0  0  0  0  0  0  0  0  0  0  0
    3.0566   -1.9291    0.0748 O   0  0  0  0  0  0  0  0  0  0  0  0
   -2.9665    0.3188    1.1353 O   0  0  0  0  0  0  0  0  0  0  0  0
   -4.7030    2.5607    0.4195 O   0  0  0  0  0  0  0  0  0  0  0  0
   -6.2944    2.0289   -1.1051 O   0  0  0  0  0  0  0  0  0  0  0  0
   -2.4579   -1.3652   -0.4236 N   0  0  0  0  0  0  0  0  0  0  0  0
   -7.0328   -0.0939    0.5086 N   0  0  0  0  0  0  0  0  0  0  0  0
   -4.7415   -0.6400   -0.1445 C   0  0  0  0  0  0  0  0  0  0  0  0
   -5.6450    0.3709    0.5666 C   0  0  1  0  0  0  0  0  0  0  0  0
   -3.2868   -0.4969    0.2754 C   0  0  0  0  0  0  0  0  0  0  0  0
   -1.0562   -1.5083   -0.2966 C   0  0  0  0  0  0  0  0  0  0  0  0
   -0.3761   -2.4373   -1.0843 C   0  0  0  0  0  0  0  0  0  0  0  0
   -0.3541   -0.7208    0.6158 C   0  0  0  0  0  0  0  0  0  0  0  0
    1.7079   -1.7912   -0.0467 C   0  0  0  0  0  0  0  0  0  0  0  0
   -5.6017    1.7123   -0.1464 C   0  0  0  0  0  0  0  0  0  0  0  0
    1.0059   -2.5787   -0.9594 C   0  0  0  0  0  0  0  0  0  0  0  0
    1.0279   -0.8622    0.7408 C   0  0  0  0  0  0  0  0  0  0  0  0
    3.8191   -0.7746    0.1315 C   0  0  0  0  0  0  0  0  0  0  0  0
    3.5703    0.2697   -0.7591 C   0  0  0  0  0  0  0  0  0  0  0  0
    4.8365   -0.6561    1.0785 C   0  0  0  0  0  0  0  0  0  0  0  0
    4.3384    1.4327   -0.7025 C   0  0  0  0  0  0  0  0  0  0  0  0
    5.6046    0.5068    1.1352 C   0  0  0  0  0  0  0  0  0  0  0  0
    5.3555    1.5511    0.2446 C   0  0  0  0  0  0  0  0  0  0  0  0
   -5.0379   -1.6659    0.1114 H   0  0  0  0  0  0  0  0  0  0  0  0
   -4.8059   -0.5337   -1.2347 H   0  0  0  0  0  0  0  0  0  0  0  0
   -5.3817    0.5059    1.6212 H   0  0  0  0  0  0  0  0  0  0  0  0
   -2.8945   -1.9775   -1.1095 H   0  0  0  0  0  0  0  0  0  0  0  0
   -0.9110   -3.0571   -1.7993 H   0  0  0  0  0  0  0  0  0  0  0  0
   -0.8111    0.0146    1.2629 H   0  0  0  0  0  0  0  0  0  0  0  0
    1.5304   -3.3037   -1.5758 H   0  0  0  0  0  0  0  0  0  0  0  0
    1.5466   -0.2525    1.4761 H   0  0  0  0  0  0  0  0  0  0  0  0
   -7.6302    0.5487    1.0282 H   0  0  0  0  0  0  0  0  0  0  0  0
   -7.1117   -0.9947    0.9793 H   0  0  0  0  0  0  0  0  0  0  0  0
    2.7987    0.1959   -1.5207 H   0  0  0  0  0  0  0  0  0  0  0  0
    5.0345   -1.4664    1.7747 H   0  0  0  0  0  0  0  0  0  0  0  0
    6.3966    0.5995    1.8725 H   0  0  0  0  0  0  0  0  0  0  0  0
   -4.6832    3.4290   -0.0364 H   0  0  0  0  0  0  0  0  0  0  0  0
  1 22  1  0  0  0  0
  2 24  1  0  0  0  0
  3 15  1  0  0  0  0
  3 19  1  0  0  0  0
  4 11  2  0  0  0  0
  5 16  1  0  0  0  0
  5 38  1  0  0  0  0
  6 16  2  0  0  0  0
  7 11  1  0  0  0  0
  7 12  1  0  0  0  0
  7 28  1  0  0  0  0
  8 10  1  0  0  0  0
  8 33  1  0  0  0  0
  8 34  1  0  0  0  0
  9 10  1  0  0  0  0
  9 11  1  0  0  0  0
  9 25  1  0  0  0  0
  9 26  1  0  0  0  0
 10 16  1  0  0  0  0
 10 27  1  0  0  0  0
 12 13  2  0  0  0  0
 12 14  1  0  0  0  0
 13 17  1  0  0  0  0
 13 29  1  0  0  0  0
 14 18  2  0  0  0  0
 14 30  1  0  0  0  0
 15 17  2  0  0  0  0
 15 18  1  0  0  0  0
 17 31  1  0  0  0  0
 18 32  1  0  0  0  0
 19 20  2  0  0  0  0
 19 21  1  0  0  0  0
 20 22  1  0  0  0  0
 20 35  1  0  0  0  0
 21 23  2  0  0  0  0
 21 36  1  0  0  0  0
 22 24  2  0  0  0  0
 23 24  1  0  0  0  0
 23 37  1  0  0  0  0
M  END
> <PUBCHEM_COMPOUND_CID>
71452730

> <PUBCHEM_CONFORMER_RMSD>
1

> <PUBCHEM_CONFORMER_DIVERSEORDER>
1
61
33
48
56
64
62
21
78
31
12
10
28
11
43
41
8
70
30
55
17
34
49
58
74
52
26
32
15
7
68
39
14
40
65
36
47
2
53
57
60
37
75
24
23
54
45
4
72
69
42
76
71
27
77
50
38
9
73
35
25
18
6
59
51
5
13
66
63
3
79
67
22
20
29
46
16
44
19

> <PUBCHEM_MMFF94_PARTIAL_CHARGES>
35
1 -0.19
10 0.33
11 0.57
12 0.12
13 -0.15
14 -0.15
15 0.08
16 0.66
17 -0.15
18 -0.15
19 0.08
2 -0.19
20 -0.15
21 -0.15
22 0.19
23 -0.15
24 0.19
28 0.37
29 0.15
3 -0.17
30 0.15
31 0.15
32 0.15
33 0.36
34 0.36
35 0.15
36 0.15
37 0.15
38 0.5
4 -0.57
5 -0.65
6 -0.57
7 -0.55
8 -0.99
9 0.06

> <PUBCHEM_EFFECTIVE_ROTOR_COUNT>
7

> <PUBCHEM_PHARMACOPHORE_FEATURES>
10
1 3 acceptor
1 4 acceptor
1 5 acceptor
1 6 acceptor
1 7 donor
1 8 cation
1 8 donor
3 5 6 16 anion
6 12 13 14 15 17 18 rings
6 19 20 21 22 23 24 rings

> <PUBCHEM_HEAVY_ATOM_COUNT>
24

> <PUBCHEM_ATOM_DEF_STEREO_COUNT>
1

> <PUBCHEM_ATOM_UDEF_STEREO_COUNT>
0

> <PUBCHEM_BOND_DEF_STEREO_COUNT>
0

> <PUBCHEM_BOND_UDEF_STEREO_COUNT>
0

> <PUBCHEM_ISOTOPIC_ATOM_COUNT>
0

> <PUBCHEM_COMPONENT_COUNT>
1

> <PUBCHEM_CACTVS_TAUTO_COUNT>
3

> <PUBCHEM_CONFORMER_ID>
0442483A00000001

> <PUBCHEM_MMFF94_ENERGY>
64.2965

> <PUBCHEM_FEATURE_SELFOVERLAP>
50.807

> <PUBCHEM_SHAPE_FINGERPRINT>
10 15 18260834821391818035
10670039 82 17916884425786283296
10740516 88 12758800481157063448
10763959 59 18336555906616544246
11796584 16 9150905974326614427
12107183 9 18335972083402237034
12403259 118 18262796388606021882
12422481 6 17821727213044999149
12633257 1 16226330434099703334
12760667 363 10881397651965999443
13167372 99 18408318865655152392
13785724 45 17905039254040667266
14251764 75 17608102180294603548
15238133 3 17967820487728227788
15348495 7 16805610303766819393
15419008 145 18042672928491880080
15961568 22 18333734589776331669
17810953 82 18408887343579740740
18335252 114 18342170043073604676
20058555 10 18410571769365876301
20281389 69 18335420149617228347
20567600 234 18187370947713253831
20715895 44 18412260614962035504
21298829 104 18411703209590594224
21304253 335 18335143102556562996
21641784 216 17059785420688753441
22122407 14 18041571341814651176
22950370 63 8935002581178008802
23559900 14 18126853685760624239
245318 6 17824562973734329524
25122255 55 8790884116311073105
270888 7 18339923848424667272
2748736 6 18341324522689941729
2838139 119 18412819205106946004
2916195 48 18259985951370923059
312425 54 16515401867557799195
3472631 163 18130228280551164524
34797466 226 17989215836789609783
351380 3 8574437521125580830
397830 11 17677064549993853499
4340502 62 17603867801484913699
465052 167 10665228138079553170
474 4 18260830453652885242
57724786 102 17604715611719180252
59682541 52 16128104347203453494
7970288 3 8646505011248576752
960060 61 12751520695550190458

> <PUBCHEM_SHAPE_MULTIPOLES>
445.92
17.49
2.84
1.09
13.52
0.6
0.1
14.1
-1.68
-0.99
0.93
-0.55
0.12
-0.3

> <PUBCHEM_SHAPE_SELFOVERLAP>
952.843

> <PUBCHEM_SHAPE_VOLUME>
246.7

> <PUBCHEM_COORDINATE_TYPE>
2
5
10

$$$$
